24	 	 	 
ALA_139	 	 	 
C	29.024	11.801	28.124
C	28.069	12.159	29.233
C	26.614	12.019	28.819
O	26.556	5.451	23.176
O	26.713	8.484	21.83
C	23.454	6.731	23.397
C	24.055	7.65	24.455
O	23.339	8.179	25.309
N	25.379	7.768	24.445
C	26.072	8.596	25.422
C	25.603	10.03	25.229
O	25.211	10.694	26.189
C	27.583	8.489	25.226
N	25.56	10.46	23.965
C	25.038	11.783	23.583
C	23.587	11.98	24.041
O	23.225	13.06	24.496
C	25.115	11.99	22.04
C	26.565	12.203	21.621
N	22.773	10.93	23.943
N	22.135	10.478	26.653
C	22.265	10.74	28.085
C	23.108	9.653	28.733
N	23.593	12.66	27.359
