26	 	 	 
ALA_31	 	 	 
C	16.13	-19.856	63.711
C	15.633	-20.22	62.312
O	15.31	-19.326	61.519
N	15.517	-21.487	61.96
C	14.898	-21.867	60.702
C	14.065	-23.11	60.963
O	14.555	-24.105	61.506
C	15.949	-22.193	59.641
N	12.771	-23.019	60.686
C	11.872	-24.148	60.816
C	11.306	-24.549	59.46
O	11.343	-23.818	58.464
C	10.697	-23.82	61.737
C	11.032	-23.485	63.196
C	13.814	-25.589	64.264
C	15.284	-25.949	64.302
N	16.056	-25.222	63.502
C	17.477	-25.441	63.341
C	18.085	-24.048	63.482
O	17.457	-23.052	63.101
C	17.748	-26.061	61.941
C	16.871	-27.268	61.554
C	15.62	-27.078	60.946
C	17.656	-25.249	58.286
C	15.275	-23.271	55.836
O	11.95	-20.152	59.346
