29	 	 	 
ALA_22	 	 	 
O	17.663	-9.315	57.655
O	19.718	-12.012	58.206
O	22.632	-10.395	58.37
C	21.038	-8.093	58.724
C	20.556	-8.715	60.043
O	21.134	-8.438	61.093
N	19.522	-9.562	60.083
C	19.117	-10.254	61.311
C	20.272	-11.101	61.821
O	20.736	-10.929	62.95
C	17.977	-11.21	61.076
N	20.793	-11.957	60.935
C	21.966	-12.793	61.166
C	23.129	-12.043	61.823
O	23.593	-12.451	62.88
C	22.444	-13.381	59.832
N	23.548	-10.909	61.279
N	23.205	-9.126	63.288
C	22.818	-8.577	64.562
C	21.661	-7.624	64.322
N	22.153	-10.834	65.319
C	20.556	-12.528	65.905
O	20.542	-15.539	63.57
C	18.438	-15.081	60.778
C	14.714	-12.085	63.147
C	15.543	-11.117	63.993
O	16.489	-11.494	64.693
O	15.227	-9.935	63.983
O	17.645	-6.773	62.747
